mml_surdat = '/gpfs/u/home/mlague/cesmruns/simple_land/inputs/realistic/slim_realistic_fromCLM5_alb1850_hc1850_rs1850_f19_20190110.nc'
