mml_surdat = '$DIN_LOC_ROOT/lnd/slim/surdat/slim_realistic_fromCLM5_alb1850_hc1850_rs1850_f19_20190110.nc'
