mml_surdat = '/glade/p/cesmdata/inputdata/lnd/slim/surdat/slim_realistic_f19_20190110_cutout_to_f10_c20230131.nc'
