mml_surdat = '/glade/u/home/mlague/cesmruns/simple_land/inputs/global_pert/Cheyenne_inputs/globalconst_alpha0.2_soilcv2e6_hc0.1_rs100.0_glc_hc0.01_f19_20170829.nc'
