mml_surdat = '$DIN_LOC_ROOT/lnd/slim/surdat/globalconst_alpha0.2_soilcv2e6_hc0.1_rs100.0_glc_hc0.01_f19_20170829.nc'
