histaux_a2x3hr=.true.
histaux_a2x3hrp = .true.
histaux_a2x1hri = .true.
histaux_a2x1hr = .true.
histaux_a2x24hr = .true.
histaux_a2x = .true.
